/*--------------------------------*- C++ -*----------------------------------*\
| =========                 |                                                 |
| \\      /  F ield         | OpenFOAM: The Open Source CFD Toolbox           |
|  \\    /   O peration     | Version:  v11                                   |
|   \\  /    A nd           | Web:      www.OpenFOAM.org                      |
|    \\/     M anipulation  |                                                 |
\*---------------------------------------------------------------------------*/
FoamFile
{
    version     2.0;
    format      ascii;
    class       dictionary;
    location    "system";
    object      fvSolution;
}
// * * * * * * * * * * * * * * * * * * * * * * * * * * * * * * * * * * * * * //

solvers
{
    p_rgh
    {
        solver          GAMG;
        tolerance       1e-07;
        relTol          0.01;
        smoother        DICGaussSeidel;
    }

    p_rghFinal
    {
        $p_rgh;
        relTol          0;
    }

    "(U|k|epsilon|omega|nuTilda)"
    {
        solver          smoothSolver;
        smoother        symGaussSeidel;
        tolerance       1e-06;
        relTol          0.1;
    }

    "(U|k|epsilon|omega|nuTilda)Final"
    {
        $U;
        relTol          0;
    }
}

PIMPLE
{
    nOuterCorrectors    2;
    nCorrectors         2;
    nNonOrthogonalCorrectors 1;
    pRefCell            0;
    pRefValue           0;
    
    residualControl
    {
        U
        {
            tolerance   1e-5;
            relTol      0;
        }
        p_rgh
        {
            tolerance   5e-4;
            relTol      0;
        }
    }
}

relaxationFactors
{
    fields
    {
        p_rgh           0.3;
        p_rghFinal      1;
    }
    equations
    {
        "U|k|epsilon|omega"     0.7;
        "(U|k|epsilon|omega)Final" 1;
    }
}

// ************************************************************************* //